! GL Esposito and HK Chelliah, "Skeletal Reaction Models Based on Principal
! Component Analysis: Application to Ethylene-air Ignition, Propagation, and
! Extinction Phenomena," sumbitted for publication in Combust. and Flame. (2010)
ELEMENTS
O H C N AR
END
SPECIES
C2H4 O2 CO2 H2O OH H CO H2 O HO2 CH3 C4H2 CH4 C2H2 HCCO CH2CHO CH2
C2H5 CH3O C2H3 C2H6 H2O2 C3H6 C2O CH aC3H5 C2H CH2* H2CC C CH2O iC4H3
C4H6 HCO CH2OCH2 CH2CHCO AR N2
END
REACTIONS
H+O2<=>O+OH                                    0.220300E+17   -0.671000E+00    0.170410E+05
O+H2<=>H+OH                                    0.458900E+05    0.270000E+01    0.626000E+04
OH+H2<=>H+H2O                                  0.173400E+09    0.151000E+01    0.343000E+04
2OH<=>O+H2O                                    0.397300E+05    0.240000E+01   -0.211000E+04
H+OH+M<=>H2O+M                                 0.110000E+23   -0.200000E+01    0.000000E+00
 H2/2.00/ H2O/6.30/ CO/1.75/ CO2/3.60/                                                                                                                                                                  
O+H+M<=>OH+M                                   0.942800E+19   -0.100000E+01    0.000000E+00
 H2/2.00/ H2O/12.00/CO/1.75/ CO2/3.60/                                                                                                                                                                  
H2+O2<=>HO2+H                                  0.591600E+06    0.243300E+01    0.535020E+05
HO2+H<=>2OH                                    0.374300E+14    0.000000E+00    0.295000E+03
HO2+O<=>OH+O2                                  0.400000E+14    0.000000E+00    0.000000E+00
2HO2<=>O2+H2O2                                 0.365800E+15    0.000000E+00    0.120000E+05
duplicate
OH+HO2<=>H2O+O2                                0.107400E+72   -0.167200E+02    0.329000E+05
duplicate
OH+HO2<=>H2O+O2                                0.251000E+13    0.200000E+01    0.400000E+05
duplicate
H2O2+OH<=>HO2+H2O                              0.267000E+42   -0.700000E+01    0.376000E+05
duplicate
CO+OH<=>CO2+H                                  0.587200E+05    0.205300E+01   -0.355670E+03
duplicate
CO+OH<=>CO2+H                                  0.575700E+13   -0.664000E+00    0.331830E+03
duplicate
HCO+H<=>CO+H2                                  0.859200E+14    0.000000E+00    0.000000E+00
HCO+OH<=>CO+H2O                                0.302000E+14    0.000000E+00    0.000000E+00
HCO+M<=>CO+H+M                                 0.374000E+18   -0.100000E+01    0.170000E+05
 H2/2.00/ H2O/0.00/ CO/1.75/ CO2/3.60/                                                                                                                                                                  
HCO+H2O<=>CO+H+H2O                             0.112200E+19   -0.100000E+01    0.170000E+05
HCO+O2<=>CO+HO2                                0.240800E+11    0.807000E+00   -0.727000E+03
CH+H<=>C+H2                                    0.110000E+15    0.000000E+00    0.000000E+00
CH+H2<=>CH2+H                                  0.110700E+09    0.179000E+01    0.167000E+04
CH+H2O<=>CH2O+H                                0.571000E+13    0.000000E+00   -0.755000E+03
CH+O2<=>HCO+O                                  0.330000E+14    0.000000E+00    0.000000E+00
CH2+O2<=>HCO+OH                                0.106000E+14    0.000000E+00    0.150000E+04
CH2+O2<=>CO2+2H                                0.264000E+13    0.000000E+00    0.150000E+04
CH2*+N2<=>CH2+N2                               0.150000E+14    0.000000E+00    0.600000E+03
CH2*+H2<=>CH3+H                                0.700000E+14    0.000000E+00    0.000000E+00
CH2*+O2<=>H+OH+CO                              0.280000E+14    0.000000E+00    0.000000E+00
CH2*+O2<=>CO+H2O                               0.120000E+14    0.000000E+00    0.000000E+00
CH2O+H<=>HCO+H2                                0.230000E+11    0.105000E+01    0.327500E+04
CH2O+OH<=>HCO+H2O                              0.686000E+10    0.118000E+01   -0.447000E+03
CH2O+O2<=>HCO+HO2                              0.100000E+15    0.000000E+00    0.400000E+05
CH3+O<=>CH2O+H                                 0.843000E+14    0.000000E+00    0.000000E+00
CH3+OH<=>CH2*+H2O                              0.125000E+15    0.000000E+00    0.000000E+00
CH3+O2<=>OH+CH2O                               0.360000E+11    0.000000E+00    0.894000E+04
CH3+HO2<=>CH3O+OH                              0.241100E+14    0.000000E+00    0.000000E+00
2CH3(+M)<=>C2H6(+M)                            0.424000E+17   -0.970000E+00    0.620000E+03
   LOW  /      0.3540E+51     -.9670E+01     0.6220E+04  /                                                                                                                                              
   TROE /       0.5325E+00     0.1510E+03     0.1038E+04     0.4970E+04  /                                                                                                                              
 H2/2.00/ H2O/6.00/ CH4/2.00/ CO/1.50/ CO2/2.00/ C2H6/3.00/                                                                                                                                             
2CH3<=>H+C2H5                                  0.140800E+14    0.100000E+00    0.106000E+05
CH3+HCCO<=>C2H4+CO                             0.500000E+14    0.000000E+00    0.000000E+00
CH3O+H<=>CH2*+H2O                              0.160000E+14    0.000000E+00    0.000000E+00
C2H+O2<=>HCO+CO                                0.500000E+14    0.000000E+00    0.150000E+04
C2H+H2<=>H+C2H2                                0.490000E+06    0.250000E+01    0.560000E+03
C2O+O2<=>2CO+O                                 0.200000E+14    0.000000E+00    0.000000E+00
HCCO+H<=>CH2*+CO                               0.100000E+15    0.000000E+00    0.000000E+00
HCCO+O<=>H+2CO                                 0.100000E+15    0.000000E+00    0.000000E+00
HCCO+O2<=>OH+2CO                               0.160000E+13    0.000000E+00    0.854000E+03
C2H3(+M)<=>C2H2+H(+M)                          0.257300E+09    0.162000E+01    0.370482E+05
   LOW  /      0.1710E+28     -.3400E+01     0.3580E+05  /                                                                                                                                              
   TROE /       0.1982E+01     0.5384E+04     0.4290E+01     -.8000E-01  /                                                                                                                              
H2/2.00/ H2O/6.00/ CH4/2.00/ CO/1.50/ CO2/2.00/ C2H2/3.00/ C2H4/3.00/ C2H6/3.00/                                                                                                                       
C2H2+O<=>CH2+CO                                0.408000E+07    0.200000E+01    0.190000E+04
C2H2+O<=>HCCO+H                                0.163200E+08    0.200000E+01    0.190000E+04
C2H2+OH<=>C2H+H2O                              0.337000E+08    0.200000E+01    0.140000E+05
C2H2+C2H<=>C4H2+H                              0.960000E+14    0.000000E+00    0.000000E+00
H2CC+O2<=>2HCO                                 0.894700E+13    0.000000E+00    0.000000E+00
C2H3+H<=>C2H2+H2                               0.792800E+14    0.000000E+00    0.000000E+00
C2H3+H<=>H2CC+H2                               0.600000E+14    0.000000E+00    0.000000E+00
C2H3+O<=>CH3+CO                                0.480000E+14    0.000000E+00    0.000000E+00
C2H3+OH<=>C2H2+H2O                             0.301100E+14    0.000000E+00    0.000000E+00
C2H3+O2<=>C2H2+HO2                             0.134000E+07    0.161000E+01   -0.383400E+03
C2H3+O2<=>CH2CHO+O                             0.880300E+11    0.290000E+00    0.110000E+02
C2H3+O2<=>HCO+CH2O                             0.103100E+18   -0.139000E+01    0.101000E+04
C2H3+CH3(+M)<=>C3H6(+M)                        0.250000E+14    0.000000E+00    0.000000E+00
   LOW  /      0.4270E+59     -.1194E+02     0.9770E+04  /                                                                                                                                              
   TROE /       0.1750E+00     0.1341E+04     0.6000E+05     0.1014E+05  /                                                                                                                              
 H2/2.00/ H2O/6.00/ CH4/2.00/ CO/1.50/ CO2/2.00/ C2H4/3.00/ C2H6/3.00/                                                                                                                                  
CH2CHO<=>CH3+CO                                0.780000E+42   -0.914700E+01    0.469000E+05
CH2OCH2<=>CH3+HCO                              0.363000E+14    0.000000E+00    0.572000E+05
C2H4(+M)<=>H2+H2CC(+M)                         0.320000E+14    0.440000E+00    0.887700E+05
   LOW  /      0.2800E+52     -.9310E+01     0.9986E+05  /                                                                                                                                              
   TROE /       0.7345E+00     0.1800E+03     0.1035E+04     0.5417E+04  /                                                                                                                              
 H2/2.00/ H2O/6.00/ CH4/2.00/ CO/1.50/ CO2/2.00/ C2H6/3.00/                                                                                                                                             
C2H4+H(+M)<=>C2H5(+M)                          0.136700E+10    0.146300E+01    0.135500E+04
   LOW  /      0.2027E+40     -.6642E+01     0.5769E+04  /                                                                                                                                              
   TROE /       -.5690E+00     0.2990E+03     0.9147E+04     -.1524E+03  /                                                                                                                              
 H2/2.00/ H2O/6.00/ CH4/2.00/ CO/1.50/ CO2/2.00/ C2H6/3.00/                                                                                                                                             
C2H4+H<=>C2H3+H2                               0.507000E+08    0.190000E+01    0.129500E+05
C2H4+O<=>C2H3+OH                               0.415800E+08    0.190000E+01    0.374000E+04
C2H4+O<=>CH3+HCO                               0.480000E+07    0.183000E+01    0.220000E+03
C2H4+OH<=>C2H3+H2O                             0.133500E+08    0.200000E+01    0.250000E+04
C2H4+HCO<=>C2H5+CO                             0.100000E+08    0.200000E+01    0.800000E+04
C2H4+CH2*<=>H2CC+CH4                           0.500000E+14    0.000000E+00    0.000000E+00
C2H4+CH2*<=>aC3H5+H                            0.500000E+14    0.000000E+00    0.000000E+00
C2H4+CH3<=>C2H3+CH4                            0.227000E+06    0.200000E+01    0.920000E+04
C2H4+O2<=>C2H3+HO2                             0.422000E+14    0.000000E+00    0.608000E+05
C2H4+HO2<=>CH2OCH2+OH                          0.282000E+13    0.000000E+00    0.171000E+05
C2H5+HO2<=>CH3+CH2O+OH                         0.240000E+14    0.000000E+00    0.000000E+00
CH2CHCO<=>C2H3+CO                              0.100000E+15    0.000000E+00    0.270000E+05
C4H2+H<=>iC4H3                                 0.110000E+31   -0.492000E+01    0.108000E+05
C4H6+H<=>C2H4+C2H3                             0.146000E+31   -0.434000E+01    0.216470E+05
2H+M<=>H2+M                                    0.178000E+19   -0.100000E+01    0.000000E+00
 H2/0.00/ H2O/0.00/ CO2/0.00/                                                                                                                                                                           
2H+H2<=>2H2                                    0.900000E+17   -0.600000E+00    0.000000E+00
2H+H2O<=>H2+H2O                                0.562400E+20   -0.125000E+01    0.000000E+00
2H+CO2<=>H2+CO2                                0.550000E+21   -0.200000E+01    0.000000E+00
2O+M<=>O2+M                                    0.120000E+18   -0.100000E+01    0.000000E+00
 H2/2.40/ H2O/15.40/CO/1.75/ CO2/3.60/                                                                                                                                                                  
H+O2(+M)<=>HO2(+M)                             0.613900E+13    0.440000E+00    0.000000E+00
   LOW  /      0.7594E+20     -.1400E+01     0.0000E+00  /                                                                                                                                              
   TROE /       0.5000E+00     0.1000E-29     0.1000E+31     0.0000E+00  /                                                                                                                              
 H2O/11.89/O2/0.85/ CO/1.09/ CO2/2.18/                                                                                                                                                                  
2OH(+M)<=>H2O2(+M)                             0.111000E+15   -0.370000E+00    0.000000E+00
   LOW  /      0.2010E+18     -.5840E+00     -.2293E+04  /                                                                                                                                              
   TROE /       0.7346E+00     0.9400E+02     0.1756E+04     0.5182E+04  /                                                                                                                              
 H2/2.00/ H2O/6.00/ CO/1.75/ CO2/3.60/                                                                                                                                                                  
HO2+H<=>O+H2O                                  0.397000E+13    0.000000E+00    0.671000E+03
2HO2<=>O2+H2O2                                 0.130000E+12    0.000000E+00   -0.163000E+04
duplicate
OH+HO2<=>H2O+O2                                0.141000E+19   -0.176000E+01    0.600000E+02
duplicate
OH+HO2<=>H2O+O2                                0.112000E+86   -0.223000E+02    0.269000E+05
duplicate
OH+HO2<=>H2O+O2                                0.100000+137   -0.400000E+02    0.348000E+05
duplicate
H2O2+H<=>HO2+H2                                0.605000E+07    0.200000E+01    0.520000E+04
H2O2+H<=>OH+H2O                                0.241000E+14    0.000000E+00    0.397000E+04
H2O2+O<=>OH+HO2                                0.963000E+07    0.200000E+01    0.397000E+04
H2O2+OH<=>HO2+H2O                              0.200000E+13    0.000000E+00    0.427000E+03
duplicate
CO+O(+M)<=>CO2(+M)                             0.136200E+11    0.000000E+00    0.238400E+04
   LOW  /      0.1173E+25     -.2790E+01     0.4191E+04  /                                                                                                                                              
 H2/2.00/ H2O/12.00/CO/1.75/ CO2/3.60/                                                                                                                                                                  
CO+O2<=>CO2+O                                  0.111900E+13    0.000000E+00    0.477000E+05
CO+HO2<=>CO2+OH                                0.157000E+06    0.218000E+01    0.179426E+05
HCO+O<=>CO+OH                                  0.300000E+14    0.000000E+00    0.000000E+00
HCO+O<=>CO2+H                                  0.300000E+14    0.000000E+00    0.000000E+00
CO+H2(+M)<=>CH2O(+M)                           0.430000E+08    0.150000E+01    0.796000E+05
   LOW  /      0.5070E+28     -.3420E+01     0.8435E+05  /                                                                                                                                              
   TROE /       0.9320E+00     0.1970E+03     0.1540E+04     0.1030E+05  /                                                                                                                              
 H2/2.00/ H2O/6.00/ CH4/2.00/ CO/1.50/ CO2/2.00/ C2H6/3.00/                                                                                                                                             
C+OH<=>CO+H                                    0.500000E+14    0.000000E+00    0.000000E+00
C+O2<=>CO+O                                    0.580000E+14    0.000000E+00    0.576000E+03
CH+O<=>CO+H                                    0.570000E+14    0.000000E+00    0.000000E+00
CH+OH<=>HCO+H                                  0.300000E+14    0.000000E+00    0.000000E+00
CH+CO(+M)<=>HCCO(+M)                           0.500000E+14    0.000000E+00    0.000000E+00
   LOW  /      0.2690E+29     -.3740E+01     0.1936E+04  /                                                                                                                                              
   TROE /       0.5757E+00     0.2370E+03     0.1652E+04     0.5069E+04  /                                                                                                                              
 H2/2.00/ H2O/6.00/ CH4/2.00/ CO/1.50/ CO2/2.00/ C2H6/3.00/                                                                                                                                             
CH+CO2<=>HCO+CO                                0.340000E+13    0.000000E+00    0.690000E+03
HCO+H(+M)<=>CH2O(+M)                           0.109000E+13    0.480000E+00   -0.260000E+03
   LOW  /      0.1350E+25     -.2570E+01     0.1425E+04  /                                                                                                                                              
   TROE /       0.7824E+00     0.2710E+03     0.2755E+04     0.6570E+04  /                                                                                                                              
 H2/2.00/ H2O/6.00/ CH4/2.00/ CO/1.50/ CO2/2.00/ C2H6/3.00/                                                                                                                                             
CH2+H(+M)<=>CH3(+M)                            0.250000E+17   -0.800000E+00    0.000000E+00
   LOW  /      0.3200E+28     -.3140E+01     0.1230E+04  /                                                                                                                                              
   TROE /       0.6800E+00     0.7800E+02     0.1995E+04     0.5590E+04  /                                                                                                                              
 H2/2.00/ H2O/6.00/ CH4/2.00/ CO/1.50/ CO2/2.00/ C2H6/3.00/                                                                                                                                             
CH2+O<=>HCO+H                                  0.800000E+14    0.000000E+00    0.000000E+00
CH2+OH<=>CH2O+H                                0.200000E+14    0.000000E+00    0.000000E+00
CH2+OH<=>CH+H2O                                0.113000E+08    0.200000E+01    0.300000E+04
CH2+H2<=>H+CH3                                 0.500000E+06    0.200000E+01    0.723000E+04
CH2+HO2<=>CH2O+OH                              0.200000E+14    0.000000E+00    0.000000E+00
CH2+C<=>C2H+H                                  0.500000E+14    0.000000E+00    0.000000E+00
CH2+CH<=>C2H2+H                                0.400000E+14    0.000000E+00    0.000000E+00
2CH2<=>C2H2+H2                                 0.320000E+14    0.000000E+00    0.000000E+00
CH2*+H<=>CH+H2                                 0.300000E+14    0.000000E+00    0.000000E+00
CH2*+O<=>CO+H2                                 0.150000E+14    0.000000E+00    0.000000E+00
CH2*+O<=>HCO+H                                 0.150000E+14    0.000000E+00    0.000000E+00
CH2*+OH<=>CH2O+H                               0.300000E+14    0.000000E+00    0.000000E+00
CH2*+H2O<=>CH2+H2O                             0.300000E+14    0.000000E+00    0.000000E+00
CH2*+CO<=>CH2+CO                               0.900000E+13    0.000000E+00    0.000000E+00
CH2*+CO2<=>CH2+CO2                             0.700000E+13    0.000000E+00    0.000000E+00
CH2*+CO2<=>CH2O+CO                             0.140000E+14    0.000000E+00    0.000000E+00
CH2O+H(+M)<=>CH3O(+M)                          0.540000E+12    0.454000E+00    0.260000E+04
   LOW  /      0.2200E+31     -.4800E+01     0.5560E+04  /                                                                                                                                              
   TROE /       0.7580E+00     0.9400E+02     0.1555E+04     0.4200E+04  /                                                                                                                              
 H2/2.00/ H2O/6.00/ CH4/2.00/ CO/1.50/ CO2/2.00/ C2H6/3.00/                                                                                                                                             
CH2O+O<=>HCO+OH                                0.390000E+14    0.000000E+00    0.354000E+04
CH2O+HO2<=>HCO+H2O2                            0.411000E+05    0.250000E+01    0.102050E+05
CH3+H(+M)<=>CH4(+M)                            0.317500E+16   -0.630000E+00    0.383000E+03
   LOW  /      0.6193E+33     -.4760E+01     0.2440E+04  /                                                                                                                                              
   TROE /       0.7830E+00     0.7400E+02     0.2941E+04     0.6964E+04  /                                                                                                                              
 H2/2.00/ H2O/6.00/ CH4/2.00/ CO/1.50/ CO2/2.00/ C2H6/3.00/                                                                                                                                             
CH3+OH<=>CH2+H2O                               0.560000E+08    0.160000E+01    0.542000E+04
CH3+O2<=>O+CH3O                                0.308300E+14    0.000000E+00    0.288000E+05
CH3+HO2<=>CH4+O2                               0.100000E+13    0.000000E+00    0.000000E+00
CH3+H2O2<=>CH4+HO2                             0.245000E+05    0.247000E+01    0.518000E+04
CH3+C<=>C2H2+H                                 0.500000E+14    0.000000E+00    0.000000E+00
CH3+CH<=>C2H3+H                                0.300000E+14    0.000000E+00    0.000000E+00
CH3+HCO<=>CH4+CO                               0.848000E+13    0.000000E+00    0.000000E+00
CH3+CH2O<=>CH4+HCO                             0.332000E+04    0.281000E+01    0.586000E+04
CH3+CH2<=>C2H4+H                               0.400000E+14    0.000000E+00    0.000000E+00
CH3+CH2*<=>C2H4+H                              0.120000E+14    0.000000E+00   -0.570000E+03
CH3O+H<=>CH2O+H2                               0.200000E+14    0.000000E+00    0.000000E+00
CH3O+H<=>CH3+OH                                0.320000E+14    0.000000E+00    0.000000E+00
CH3O+O<=>CH2O+OH                               0.100000E+14    0.000000E+00    0.000000E+00
CH3O+OH<=>CH2O+H2O                             0.500000E+13    0.000000E+00    0.000000E+00
CH3O+O2<=>CH2O+HO2                             0.428000E-12    0.760000E+01   -0.353000E+04
CH4+H<=>CH3+H2                                 0.660000E+09    0.162000E+01    0.108400E+05
CH4+O<=>CH3+OH                                 0.102000E+10    0.150000E+01    0.860000E+04
CH4+OH<=>CH3+H2O                               0.100000E+09    0.160000E+01    0.312000E+04
CH4+CH<=>C2H4+H                                0.600000E+14    0.000000E+00    0.000000E+00
CH4+CH2<=>2CH3                                 0.246000E+07    0.200000E+01    0.827000E+04
CH4+CH2*<=>2CH3                                0.160000E+14    0.000000E+00   -0.570000E+03
CH4+C2H<=>C2H2+CH3                             0.181000E+13    0.000000E+00    0.500000E+03
C2H+H(+M)<=>C2H2(+M)                           0.100000E+18   -0.100000E+01    0.000000E+00
   LOW  /      0.3750E+34     -.4800E+01     0.1900E+04  /                                                                                                                                              
   TROE /       0.6464E+00     0.1320E+03     0.1315E+04     0.5566E+04  /                                                                                                                              
 H2/2.00/ H2O/6.00/ CH4/2.00/ CO/1.50/ CO2/2.00/ C2H6/3.00/                                                                                                                                             
C2H+O<=>CH+CO                                  0.500000E+14    0.000000E+00    0.000000E+00
C2H+OH<=>H+HCCO                                0.200000E+14    0.000000E+00    0.000000E+00
C2O+H<=>CH+CO                                  0.500000E+14    0.000000E+00    0.000000E+00
C2O+O<=>2CO                                    0.500000E+14    0.000000E+00    0.000000E+00
C2O+OH<=>2CO+H                                 0.200000E+14    0.000000E+00    0.000000E+00
HCCO+CH<=>C2H2+CO                              0.500000E+14    0.000000E+00    0.000000E+00
HCCO+CH2<=>C2H3+CO                             0.300000E+14    0.000000E+00    0.000000E+00
2HCCO<=>C2H2+2CO                               0.100000E+14    0.000000E+00    0.000000E+00
HCCO+OH<=>C2O+H2O                              0.300000E+14    0.000000E+00    0.000000E+00
C2H2(+M)<=>H2CC(+M)                            0.109100E+16   -0.520000E+00    0.507500E+05
   LOW  /      0.3341E+16     -.6400E+00     0.4970E+05  /                                                                                                                                              
 H2/2.00/ H2O/6.00/ CH4/2.00/ CO/1.50/ CO2/2.00/ C2H4/2.50/ C2H6/3.00/                                                                                                                                  
C2H2+O<=>C2H+OH                                0.460000E+20   -0.141000E+01    0.289500E+05
C2H2+OH<=>CH3+CO                               0.483000E-03    0.400000E+01   -0.200000E+04
C2H2+HCO<=>C2H3+CO                             0.100000E+08    0.200000E+01    0.600000E+04
C2H2+C2H(+M)<=>iC4H3(+M)                       0.830000E+11    0.899000E+00   -0.363000E+03
   LOW  /      0.1240E+32     -.4718E+01     0.1871E+04  /                                                                                                                                              
   TROE /       0.1000E+01     0.1000E+03     0.5613E+04     0.1339E+05  /                                                                                                                              
H2/2.00/ H2O/6.00/ CH4/2.00/ CO/1.50/ CO2/2.00/ C2H2/2.50/ C2H4/2.50/ C2H6/3.00/                                                                                                                       
C2H2+CH3<=>aC3H5                               0.268000E+54   -0.128200E+02    0.357300E+05
H2CC+H<=>C2H2+H                                0.100000E+15    0.000000E+00    0.000000E+00
H2CC+C2H4<=>C4H6                               0.100000E+13    0.000000E+00    0.000000E+00
C2H3+H(+M)<=>C2H4(+M)                          0.608000E+13    0.270000E+00    0.280000E+03
   LOW  /      0.1400E+31     -.3860E+01     0.3320E+04  /                                                                                                                                              
   TROE /       0.7820E+00     0.2075E+03     0.2663E+04     0.6095E+04  /                                                                                                                              
H2/2.00/ H2O/6.00/ CH4/2.00/ CO/1.50/ CO2/2.00/ C2H2/3.00/ C2H4/3.00/ C2H6/3.00/                                                                                                                       
C2H3+HO2<=>CH2CHO+OH                           0.100000E+14    0.000000E+00    0.000000E+00
C2H3+H2O2<=>C2H4+HO2                           0.121000E+11    0.000000E+00   -0.596000E+03
C2H3+HCO<=>C2H4+CO                             0.903300E+14    0.000000E+00    0.000000E+00
C2H3+CH3<=>C2H2+CH4                            0.392000E+12    0.000000E+00    0.000000E+00
C2H3+CH3<=>aC3H5+H                             0.150000E+25   -0.283000E+01    0.186180E+05
2C2H3<=>C4H6                                   0.150000E+43   -0.884000E+01    0.124830E+05
2C2H3<=>C2H2+C2H4                              0.960000E+12    0.000000E+00    0.000000E+00
CH2CHO+H<=>CH3+HCO                             0.900000E+14    0.000000E+00    0.000000E+00
CH2CHO+O2<=>CH2O+CO+OH                         0.180000E+11    0.000000E+00    0.000000E+00
CH2OCH2<=>CH4+CO                               0.121000E+14    0.000000E+00    0.572000E+05
CH2OCH2+H<=>C2H3+H2O                           0.500000E+10    0.000000E+00    0.500000E+04
CH2OCH2+H<=>C2H4+OH                            0.951000E+11    0.000000E+00    0.500000E+04
C2H4+O<=>CH2+CH2O                              0.384000E+06    0.183000E+01    0.220000E+03
C2H4+CH2<=>aC3H5+H                             0.200000E+14    0.000000E+00    0.600000E+04
C2H5+H(+M)<=>C2H6(+M)                          0.521000E+18   -0.990000E+00    0.158000E+04
   LOW  /      0.1990E+42     -.7080E+01     0.6685E+04  /                                                                                                                                              
   TROE /       0.8422E+00     0.1250E+03     0.2219E+04     0.6882E+04  /                                                                                                                              
 H2/2.00/ H2O/6.00/ CH4/2.00/ CO/1.50/ CO2/2.00/ C2H6/3.00/                                                                                                                                             
C2H5+H<=>C2H4+H2                               0.200000E+13    0.000000E+00    0.000000E+00
C2H5+O<=>CH3+CH2O                              0.160400E+14    0.000000E+00    0.000000E+00
C2H5+O2<=>C2H4+HO2                             0.200000E+11    0.000000E+00    0.000000E+00